#!/sbin/sh
MODPATH="/data/adb/modules/zivpn-core"
ui_print "- Installing ZIVPN Proxy Release..."
unzip -o "$ZIPFILE" -x 'META-INF/*' -d $MODPATH >&2
set_perm_recursive $MODPATH 0 0 0755 0644
set_perm_recursive $MODPATH/system/bin 0 0 0755 0755
set_perm $MODPATH/service.sh 0 0 0755
ui_print "- Success! Proxy running on Port 7777"
